
.SUBCKT  FNS_EQ  IN OUT
+
FNS1  IN OUT
+
+      9941851422.22
+      994.248489943  !  * s^(-1)
+ ,
+                  1
+  5.52483616409e-05  !  * s^(-1)
+  4.57446349381e-12  !  * s^(-2)
+   6.8638955903e-19  !  * s^(-3)
+  4.82337686594e-26  !  * s^(-4)
+  1.48355146583e-33  !  * s^(-5)
+  2.08267518793e-41  !  * s^(-6)
+   1.1026593912e-49  !  * s^(-7)

.ENDS FNS_EQ

