
.SUBCKT  FNS_EQ  IN OUT
+
FNS1  IN OUT
+
+ -2.55511934749e+12
+      216274.777553  !  * s^(-1)
+   -0.0119069723262  !  * s^(-2)
+  4.91101824559e-10  !  * s^(-3)
+ -1.37969666912e-17  !  * s^(-4)
+  5.10232442047e-26  !  * s^(-5)
+ -7.68538367261e-35  !  * s^(-6)
+  5.81139965242e-44  !  * s^(-7)
+ -2.34322957603e-53  !  * s^(-8)
+  4.30392750717e-63  !  * s^(-9)
+ ,
+                  1
+       3.0000655188  !  * s^(-1)
+      3.00019681846  !  * s^(-2)
+      1.00019708056  !  * s^(-3)
+  6.57808926754e-05  !  * s^(-4)
+  6.53202495745e-13  !  * s^(-5)
+  2.26975482756e-21  !  * s^(-6)
+  3.43760485084e-30  !  * s^(-7)
+  2.65860455004e-39  !  * s^(-8)
+  9.26104894193e-49  !  * s^(-9)

.ENDS FNS_EQ

